Circuit: * C:\Users\alexa\Documents\hardware\TripleFiveSynth\sim\TripleFiveSynth.asc

Direct Newton iteration for .op point succeeded.

Date: Tue Feb 01 23:32:26 2022
Total elapsed time: 0.083 seconds.

tnom = 27
temp = 27
method = modified trap
totiter = 30021
traniter = 30013
tranpoints = 6785
accept = 5368
rejected = 1417
matrix size = 14
fillins = 0
solver = Normal
Matrix Compiler1: 384 bytes object code size  0.1/0.1/[0.0]
Matrix Compiler2: 776 bytes object code size  0.1/0.1/[0.1]

